
     RDKit          3D

 21 22  0  0  0  0  0  0  0  0999 V2000
   36.6258   56.6027   24.7122 O   0  0  0  0  0  0  0  0  0  0  0  0
   37.4488   56.4642   25.6319 C   0  0  0  0  0  0  0  0  0  0  0  0
   36.9530   56.3605   27.0364 C   0  0  0  0  0  0  0  0  0  0  0  0
   35.9295   57.4299   27.2561 C   0  0  0  0  0  0  0  0  0  0  0  0
   35.4215   57.5233   28.6708 C   0  0  0  0  0  0  0  0  0  0  0  0
   34.8846   58.9041   28.9108 C   0  0  0  0  0  0  0  0  0  0  0  0
   33.6314   58.9554   29.5963 N   0  0  0  0  0  0  0  0  0  0  0  0
   32.5335   59.6295   29.0031 C   0  0  0  0  0  0  0  0  0  0  0  0
   32.7791   60.5104   28.1457 O   0  0  0  0  0  0  0  0  0  0  0  0
   31.1266   59.3028   29.3855 C   0  0  0  0  0  0  0  0  0  0  0  0
   30.0941   60.1249   28.9995 C   0  0  0  0  0  0  0  0  0  0  0  0
   28.7425   59.3156   29.6780 S   0  0  0  0  0  0  0  0  0  0  0  0
   29.5702   58.0117   30.3923 C   0  0  0  0  0  0  0  0  0  0  0  0
   28.9830   56.8801   31.1767 C   0  0  0  0  0  0  0  0  0  0  0  0
   29.7907   55.9441   31.7863 C   0  0  0  0  0  0  0  0  0  0  0  0
   28.6364   54.9205   32.5149 S   0  0  0  0  0  0  0  0  0  0  0  0
   27.2204   55.7292   32.0099 C   0  0  0  0  0  0  0  0  0  0  0  0
   27.7053   56.7410   31.3097 N   0  0  0  0  0  0  0  0  0  0  0  0
   30.8154   58.2514   30.0848 N   0  0  0  0  0  0  0  0  0  0  0  0
   38.8364   56.4087   25.3206 N   0  0  0  0  0  0  0  0  0  0  0  0
   39.2596   56.2697   24.0549 O   0  0  0  0  0  0  0  0  0  0  0  0
  1  2  2  0
  2  3  1  0
  3  4  1  0
  4  5  1  0
  5  6  1  0
  6  7  1  0
  7  8  1  0
  8  9  2  0
  8 10  1  0
 10 11  2  0
 11 12  1  0
 12 13  1  0
 13 14  1  0
 14 15  2  0
 15 16  1  0
 16 17  1  0
 17 18  2  0
 13 19  2  0
  2 20  1  0
 20 21  1  0
 19 10  1  0
 18 14  1  0
M  END
$$$$
