
     RDKit          3D

 18 19  0  0  0  0  0  0  0  0999 V2000
  103.1425   95.9364  102.7554 C   0  0  0  0  0  0  0  0  0  0  0  0
  101.9188   96.7605  103.1064 C   0  0  0  0  0  0  0  0  0  0  0  0
  102.1446   98.1166  102.7761 O   0  0  0  0  0  0  0  0  0  0  0  0
  101.1645   99.0684  102.6982 C   0  0  0  0  0  0  0  0  0  0  0  0
  100.0079   98.7975  103.0823 O   0  0  0  0  0  0  0  0  0  0  0  0
  101.5175  100.4273  102.1448 C   0  0  0  0  0  0  0  0  0  0  0  0
  102.5270  101.0390  102.9880 C   0  0  0  0  0  0  0  0  0  0  0  0
  103.8584  101.1877  102.7018 C   0  0  0  0  0  0  0  0  0  0  0  0
  104.7252  101.7961  103.5623 C   0  0  0  0  0  0  0  0  0  0  0  0
  104.3084  102.2985  104.7768 C   0  0  0  0  0  0  0  0  0  0  0  0
  102.9651  102.1538  105.0787 C   0  0  0  0  0  0  0  0  0  0  0  0
  102.0899  101.5462  104.2230 C   0  0  0  0  0  0  0  0  0  0  0  0
  100.3301  101.2020  101.7913 C   0  0  0  0  0  0  0  0  0  0  0  0
   99.4903  100.7225  100.6496 C   0  0  0  0  0  0  0  0  0  0  0  0
   98.0550  101.1067  100.9423 C   0  0  0  0  0  0  0  0  0  0  0  0
   98.1015  102.5529  101.4058 C   0  0  0  0  0  0  0  0  0  0  0  0
   99.3811  103.2595  101.0326 C   0  0  0  0  0  0  0  0  0  0  0  0
  100.5637  102.6220  101.5928 N   0  0  0  0  0  0  0  0  0  0  0  0
  1  2  1  0
  2  3  1  0
  3  4  1  0
  4  5  2  0
  4  6  1  0
  6  7  1  0
  7  8  2  0
  8  9  1  0
  9 10  2  0
 10 11  1  0
 11 12  2  0
  6 13  1  0
 13 14  1  0
 14 15  1  0
 15 16  1  0
 16 17  1  0
 17 18  1  0
 12  7  1  0
 18 13  1  0
M  END
$$$$
