
     RDKit          3D

 18 20  0  0  0  0  0  0  0  0999 V2000
   47.4672   15.3997   10.1063 C   0  0  0  0  0  0  0  0  0  0  0  0
   47.2645   14.0667    9.5917 N   0  0  0  0  0  0  0  0  0  0  0  0
   48.2587   13.2714    9.1864 C   0  0  0  0  0  0  0  0  0  0  0  0
   47.7115   12.0485    8.8001 C   0  0  0  0  0  0  0  0  0  0  0  0
   48.5057   10.8613    8.4484 C   0  0  0  0  0  0  0  0  0  0  0  0
   49.7746   11.0445    7.8851 C   0  0  0  0  0  0  0  0  0  0  0  0
   50.4758   13.0088    7.6523 I   0  0  0  0  0  0  0  0  0  0  0  0
   50.5298    9.9473    7.4802 C   0  0  0  0  0  0  0  0  0  0  0  0
   49.9960    8.7363    7.6559 N   0  0  0  0  0  0  0  0  0  0  0  0
   48.7499    8.5595    8.2102 C   0  0  0  0  0  0  0  0  0  0  0  0
   48.3230    7.2101    8.4233 N   0  0  0  0  0  0  0  0  0  0  0  0
   48.0233    9.6039    8.5941 N   0  0  0  0  0  0  0  0  0  0  0  0
   46.3642   12.1954    9.0041 C   0  0  0  0  0  0  0  0  0  0  0  0
   46.0570   13.4396    9.4954 C   0  0  0  0  0  0  0  0  0  0  0  0
   44.7687   13.8295    9.7460 C   0  0  0  0  0  0  0  0  0  0  0  0
   43.7398   12.9492    9.4923 C   0  0  0  0  0  0  0  0  0  0  0  0
   44.0385   11.6758    8.9855 C   0  0  0  0  0  0  0  0  0  0  0  0
   45.3290   11.2947    8.7425 C   0  0  0  0  0  0  0  0  0  0  0  0
  1  2  1  0
  2  3  1  0
  3  4  2  0
  4  5  1  0
  5  6  2  0
  6  7  1  0
  6  8  1  0
  8  9  2  0
  9 10  1  0
 10 11  1  0
 10 12  2  0
  4 13  1  0
 13 14  2  0
 14 15  1  0
 15 16  2  0
 16 17  1  0
 17 18  2  0
 14  2  1  0
 12  5  1  0
 18 13  1  0
M  END
$$$$
