
     RDKit          3D

 18 20  0  0  0  0  0  0  0  0999 V2000
  162.5950  146.1561  172.5452 C   0  0  0  0  0  0  0  0  0  0  0  0
  163.2024  147.2528  171.9716 C   0  0  0  0  0  0  0  0  0  0  0  0
  163.0370  148.5275  172.4694 C   0  0  0  0  0  0  0  0  0  0  0  0
  162.2348  148.6870  173.5761 C   0  0  0  0  0  0  0  0  0  0  0  0
  161.5957  147.6095  174.1962 C   0  0  0  0  0  0  0  0  0  0  0  0
  161.8014  146.3710  173.6524 C   0  0  0  0  0  0  0  0  0  0  0  0
  162.0636  149.9617  174.0817 C   0  0  0  0  0  0  0  0  0  0  0  0
  162.6671  151.0642  173.5147 C   0  0  0  0  0  0  0  0  0  0  0  0
  162.4403  152.2866  174.0832 O   0  0  0  0  0  0  0  0  0  0  0  0
  161.6607  152.4885  175.2452 C   0  0  0  0  0  0  0  0  0  0  0  0
  161.9766  153.7756  175.9362 C   0  0  0  0  0  0  0  0  0  0  0  0
  160.8846  154.7890  175.8601 C   0  0  0  0  0  0  0  0  0  0  0  0
  161.1264  155.7637  174.6999 C   0  0  0  0  0  0  0  0  0  0  0  0
  162.2706  156.6031  175.0422 N   0  0  0  0  0  0  0  0  0  0  0  0
  163.3431  155.8203  175.6356 C   0  0  0  0  0  0  0  0  0  0  0  0
  163.1982  154.3721  175.2351 C   0  0  0  0  0  0  0  0  0  0  0  0
  163.4784  150.8889  172.3924 C   0  0  0  0  0  0  0  0  0  0  0  0
  163.6611  149.6252  171.8738 C   0  0  0  0  0  0  0  0  0  0  0  0
  1  2  2  0
  2  3  1  0
  3  4  2  0
  4  5  1  0
  5  6  2  0
  4  7  1  0
  7  8  2  0
  8  9  1  0
  9 10  1  0
 10 11  1  0
 11 12  1  0
 12 13  1  0
 13 14  1  0
 14 15  1  0
 15 16  1  0
  8 17  1  0
 17 18  2  0
  6  1  1  0
 16 11  1  0
 18  3  1  0
M  END
$$$$
