
     RDKit          3D

 25 28  0  0  0  0  0  0  0  0999 V2000
  -51.1735   14.8592  -49.7278 O   0  0  0  0  0  0  0  0  0  0  0  0
  -51.7973   14.0845  -48.9639 C   0  0  0  0  0  0  0  0  0  0  0  0
  -52.5071   14.6187  -47.8991 O   0  0  0  0  0  0  0  0  0  0  0  0
  -51.7702   12.6293  -49.2031 C   0  0  0  0  0  0  0  0  0  0  0  0
  -51.1585   12.0937  -50.3043 C   0  0  0  0  0  0  0  0  0  0  0  0
  -51.1150   10.7193  -50.5605 C   0  0  0  0  0  0  0  0  0  0  0  0
  -51.7246    9.8904  -49.6442 C   0  0  0  0  0  0  0  0  0  0  0  0
  -52.3547   10.3956  -48.5161 C   0  0  0  0  0  0  0  0  0  0  0  0
  -52.3600   11.7698  -48.3242 C   0  0  0  0  0  0  0  0  0  0  0  0
  -52.9414    9.5699  -47.6384 N   0  0  0  0  0  0  0  0  0  0  0  0
  -52.9809    8.2352  -47.7498 C   0  0  0  0  0  0  0  0  0  0  0  0
  -53.6144    7.4069  -46.7922 N   0  0  0  0  0  0  0  0  0  0  0  0
  -54.3127    7.9630  -45.6841 C   0  0  0  0  0  0  0  0  0  0  0  0
  -54.1122    7.5222  -44.4125 C   0  0  0  0  0  0  0  0  0  0  0  0
  -54.7967    8.1020  -43.3540 C   0  0  0  0  0  0  0  0  0  0  0  0
  -55.6754    9.1225  -43.6122 C   0  0  0  0  0  0  0  0  0  0  0  0
  -55.9151    9.6044  -44.8755 C   0  0  0  0  0  0  0  0  0  0  0  0
  -57.0476   10.9087  -45.1478 Cl  0  0  0  0  0  0  0  0  0  0  0  0
  -55.2172    9.0039  -45.8971 C   0  0  0  0  0  0  0  0  0  0  0  0
  -52.3542    7.7130  -48.8741 C   0  0  0  0  0  0  0  0  0  0  0  0
  -51.7251    8.5233  -49.8255 C   0  0  0  0  0  0  0  0  0  0  0  0
  -51.1073    7.9976  -50.9337 C   0  0  0  0  0  0  0  0  0  0  0  0
  -51.1165    6.6550  -51.0950 N   0  0  0  0  0  0  0  0  0  0  0  0
  -51.6997    5.8292  -50.2227 C   0  0  0  0  0  0  0  0  0  0  0  0
  -52.3242    6.3556  -49.1031 C   0  0  0  0  0  0  0  0  0  0  0  0
  1  2  2  0
  2  3  1  0
  2  4  1  0
  4  5  2  0
  5  6  1  0
  6  7  2  0
  7  8  1  0
  8  9  2  0
  8 10  1  0
 10 11  2  0
 11 12  1  0
 12 13  1  0
 13 14  2  0
 14 15  1  0
 15 16  2  0
 16 17  1  0
 17 18  1  0
 17 19  2  0
 11 20  1  0
 20 21  2  0
 21 22  1  0
 22 23  2  0
 23 24  1  0
 24 25  2  0
  9  4  1  0
 19 13  1  0
 25 20  1  0
 21  7  1  0
M  END
$$$$
