
     RDKit          3D

 26 28  0  0  0  0  0  0  0  0999 V2000
   21.6657   39.0023   32.8469 C   0  0  0  0  0  0  0  0  0  0  0  0
   21.9156   40.0201   31.8421 N   0  0  0  0  0  0  0  0  0  0  0  0
   22.0032   39.6700   30.4685 C   0  0  0  0  0  0  0  0  0  0  0  0
   21.9473   38.3567   30.0981 N   0  0  0  0  0  0  0  0  0  0  0  0
   22.0242   38.0135   28.7768 C   0  0  0  0  0  0  0  0  0  0  0  0
   21.9852   36.6446   28.4520 N   0  0  0  0  0  0  0  0  0  0  0  0
   22.2047   35.5651   29.3502 C   0  0  0  0  0  0  0  0  0  0  0  0
   21.9707   34.2478   28.9129 C   0  0  0  0  0  0  0  0  0  0  0  0
   21.5132   34.0743   27.6216 O   0  0  0  0  0  0  0  0  0  0  0  0
   20.9963   32.8884   27.1179 C   0  0  0  0  0  0  0  0  0  0  0  0
   22.1920   33.1824   29.7528 C   0  0  0  0  0  0  0  0  0  0  0  0
   22.6453   33.3260   31.0443 C   0  0  0  0  0  0  0  0  0  0  0  0
   22.8782   32.1820   31.9182 C   0  0  0  0  0  0  0  0  0  0  0  0
   23.8102   31.4088   31.5738 O   0  0  0  0  0  0  0  0  0  0  0  0
   22.1256   31.9290   33.0843 N   0  0  0  0  0  0  0  0  0  0  0  0
   22.5592   30.8850   33.9842 C   0  0  0  0  0  0  0  0  0  0  0  0
   21.4101   30.1667   34.6363 C   0  0  0  0  0  0  0  0  0  0  0  0
   20.2204   30.8706   34.5749 O   0  0  0  0  0  0  0  0  0  0  0  0
   20.3832   32.2330   34.6788 C   0  0  0  0  0  0  0  0  0  0  0  0
   20.9438   32.7149   33.3426 C   0  0  0  0  0  0  0  0  0  0  0  0
   22.8775   34.6047   31.4802 C   0  0  0  0  0  0  0  0  0  0  0  0
   22.6565   35.6932   30.6377 C   0  0  0  0  0  0  0  0  0  0  0  0
   22.1529   39.0117   27.9028 N   0  0  0  0  0  0  0  0  0  0  0  0
   22.2146   40.3163   28.2059 C   0  0  0  0  0  0  0  0  0  0  0  0
   22.1395   40.6878   29.5359 C   0  0  0  0  0  0  0  0  0  0  0  0
   22.2072   42.3412   30.0772 Cl  0  0  0  0  0  0  0  0  0  0  0  0
  1  2  1  0
  2  3  1  0
  3  4  2  0
  4  5  1  0
  5  6  1  0
  6  7  1  0
  7  8  2  0
  8  9  1  0
  9 10  1  0
  8 11  1  0
 11 12  2  0
 12 13  1  0
 13 14  2  0
 13 15  1  0
 15 16  1  0
 16 17  1  0
 17 18  1  0
 18 19  1  0
 19 20  1  0
 12 21  1  0
 21 22  2  0
  5 23  2  0
 23 24  1  0
 24 25  2  0
 25 26  1  0
 25  3  1  0
 22  7  1  0
 20 15  1  0
M  END
$$$$
