
     RDKit          3D

 19 21  0  0  0  0  0  0  0  0999 V2000
  -18.5711    1.6418   13.9926 C   0  0  0  0  0  0  0  0  0  0  0  0
  -19.4700    0.6323   14.3878 O   0  0  0  0  0  0  0  0  0  0  0  0
  -20.1958    0.6401   15.5515 C   0  0  0  0  0  0  0  0  0  0  0  0
  -20.2914    1.6934   16.2182 O   0  0  0  0  0  0  0  0  0  0  0  0
  -20.8768   -0.5686   16.0463 C   0  0  0  0  0  0  0  0  0  0  0  0
  -20.9409   -1.7993   15.4413 C   0  0  0  0  0  0  0  0  0  0  0  0
  -21.6279   -2.7615   16.0756 C   0  0  0  0  0  0  0  0  0  0  0  0
  -21.9754   -4.1106   15.8823 C   0  0  0  0  0  0  0  0  0  0  0  0
  -21.6244   -4.9530   14.7957 N   0  0  0  0  0  0  0  0  0  0  0  0
  -21.4073   -6.3446   14.9261 C   0  0  0  0  0  0  0  0  0  0  0  0
  -20.5675   -6.9934   14.0558 C   0  0  0  0  0  0  0  0  0  0  0  0
  -20.3822   -8.3422   14.1930 C   0  0  0  0  0  0  0  0  0  0  0  0
  -21.0131   -9.0762   15.1808 C   0  0  0  0  0  0  0  0  0  0  0  0
  -21.8568   -8.3854   16.0449 C   0  0  0  0  0  0  0  0  0  0  0  0
  -22.0399   -7.0489   15.9082 C   0  0  0  0  0  0  0  0  0  0  0  0
  -22.7231   -4.5351   16.9322 N   0  0  0  0  0  0  0  0  0  0  0  0
  -22.8688   -3.5327   17.7779 N   0  0  0  0  0  0  0  0  0  0  0  0
  -22.2073   -2.4402   17.2722 C   0  0  0  0  0  0  0  0  0  0  0  0
  -21.7774   -0.8045   17.4763 S   0  0  0  0  0  0  0  0  0  0  0  0
  1  2  1  0
  2  3  1  0
  3  4  2  0
  3  5  1  0
  5  6  2  0
  6  7  1  0
  7  8  2  0
  8  9  1  0
  9 10  1  0
 10 11  2  0
 11 12  1  0
 12 13  2  0
 13 14  1  0
 14 15  2  0
  8 16  1  0
 16 17  1  0
 17 18  2  0
 18 19  1  0
 19  5  1  0
 18  7  1  0
 15 10  1  0
M  END
$$$$
