
     RDKit          3D

 22 24  0  0  0  0  0  0  0  0999 V2000
   66.6174   25.4494  191.9524 N   0  0  0  0  0  0  0  0  0  0  0  0
   66.3442   24.4136  192.8775 C   0  0  0  0  0  0  0  0  0  0  0  0
   67.1063   24.1909  194.0194 C   0  0  0  0  0  0  0  0  0  0  0  0
   68.2758   24.9475  194.4583 C   0  0  0  0  0  0  0  0  0  0  0  0
   69.4109   24.2614  194.8699 C   0  0  0  0  0  0  0  0  0  0  0  0
   70.5494   24.9139  195.2963 C   0  0  0  0  0  0  0  0  0  0  0  0
   70.5937   26.2924  195.3266 C   0  0  0  0  0  0  0  0  0  0  0  0
   69.4578   26.9710  194.9146 C   0  0  0  0  0  0  0  0  0  0  0  0
   68.3204   26.3165  194.4886 C   0  0  0  0  0  0  0  0  0  0  0  0
   66.5456   23.1354  194.6376 N   0  0  0  0  0  0  0  0  0  0  0  0
   67.0251   22.5787  195.8544 C   0  0  0  0  0  0  0  0  0  0  0  0
   68.2944   22.0698  196.0269 C   0  0  0  0  0  0  0  0  0  0  0  0
   68.7063   21.5392  197.2374 C   0  0  0  0  0  0  0  0  0  0  0  0
   67.8438   21.5126  198.2969 C   0  0  0  0  0  0  0  0  0  0  0  0
   68.3082   20.8505  199.8636 S   0  0  0  0  0  6  0  0  0  0  0  0
   67.1496   19.6224  200.2503 N   0  0  0  0  0  0  0  0  0  0  0  0
   69.6905   20.2658  199.7888 O   0  0  0  0  0  0  0  0  0  0  0  0
   68.2228   21.9317  200.8717 O   0  0  0  0  0  0  0  0  0  0  0  0
   66.5664   22.0129  198.1605 C   0  0  0  0  0  0  0  0  0  0  0  0
   66.1824   22.5349  196.9455 C   0  0  0  0  0  0  0  0  0  0  0  0
   65.4884   22.7193  193.9205 N   0  0  0  0  0  0  0  0  0  0  0  0
   65.3241   23.4661  192.8385 C   0  0  0  0  0  0  0  0  0  0  0  0
  1  2  1  0
  2  3  2  0
  3  4  1  0
  4  5  2  0
  5  6  1  0
  6  7  2  0
  7  8  1  0
  8  9  2  0
  3 10  1  0
 10 11  1  0
 11 12  2  0
 12 13  1  0
 13 14  2  0
 14 15  1  0
 15 16  1  0
 15 17  2  0
 15 18  2  0
 14 19  1  0
 19 20  2  0
 10 21  1  0
 21 22  2  0
 22  2  1  0
  9  4  1  0
 20 11  1  0
M  END
$$$$
